#RADIOSS STARTER
# CANDIDATE ONLY; Linux Starter and Engine have not run.
# Units: mm s tonne N MPa. See frozen_config.json and model_manifest.json.
/BEGIN
sample1_smoke
      2022
                  Mg                  mm                   s
                  Mg                  mm                   s
/NODE
# node_ID: I10; x,y,z: 3E20
         1                   0                   0                   0
         2      0.833333333333                   0                   0
         3       1.66666666667                   0                   0
         4                 2.5                   0                   0
         5       3.33333333333                   0                   0
         6       4.16666666667                   0                   0
         7                   5                   0                   0
         8       5.83333333333                   0                   0
         9       6.66666666667                   0                   0
        10                 7.5                   0                   0
        11       8.33333333333                   0                   0
        12       9.16666666667                   0                   0
        13                  10                   0                   0
        14       10.8333333333                   0                   0
        15       11.6666666667                   0                   0
        16                12.5                   0                   0
        17       13.3333333333                   0                   0
        18       14.1666666667                   0                   0
        19                  15                   0                   0
        20       15.8333333333                   0                   0
# ... 4644 like lines cut
/MAT/LAW69/1
sample1 compression-only Ogden candidate
             1.1e-09
# law_ID fct_blk nu Fscale_blk N_pair Icheck
         1         0                0.49                   1         2        -3
         1
/FUNCT/1
Engineering strain mm/mm versus engineering stress MPa
                -0.4      -34.3588817647
              -0.395      -33.8669622222
               -0.39          -33.338925
              -0.385      -32.7477438462
               -0.38      -32.2402192308
              -0.375      -31.7351352941
               -0.37      -31.2327628571
              -0.365      -30.7251314286
               -0.36      -30.1428938462
              -0.355      -29.5964076471
               -0.35      -29.0519192308
              -0.345      -28.5387835714
               -0.34      -28.0161484615
              -0.335      -27.4425170588
               -0.33      -26.8920523077
              -0.325      -26.3375133333
               -0.32      -25.8164923077
              -0.315           -25.29596
               -0.31      -24.7349616667
              -0.305      -24.1799055556
# ... 61 like lines cut
/PROP/TYPE14/1
HA8 total strain constant pressure gel
        14        10         0         1         0       222         0         0                   0
                 1.1                0.05                   0                   0                   0
                   0
/PART/1
sample1 gel
         1         1         0
/BRICK/1
         1         1         2        27        26       626       627       652       651
         2         2         3        28        27       627       628       653       652
         3         3         4        29        28       628       629       654       653
         4         4         5        30        29       629       630       655       654
         5         5         6        31        30       630       631       656       655
         6         6         7        32        31       631       632       657       656
         7         7         8        33        32       632       633       658       657
         8         8         9        34        33       633       634       659       658
         9         9        10        35        34       634       635       660       659
        10        10        11        36        35       635       636       661       660
        11        11        12        37        36       636       637       662       661
        12        12        13        38        37       637       638       663       662
        13        13        14        39        38       638       639       664       663
        14        14        15        40        39       639       640       665       664
        15        15        16        41        40       640       641       666       665
        16        16        17        42        41       641       642       667       666
        17        17        18        43        42       642       643       668       667
        18        18        19        44        43       643       644       669       668
        19        19        20        45        44       644       645       670       669
        20        20        21        46        45       645       646       671       670
# ... 2284 like lines cut
# Rigid contact carrier only: exact mass and inertia override its shell mass.
/MAT/LAW1/2
Nominal steel contact carrier
            7.85e-09
              210000                 0.3
/PROP/TYPE1/2
Rigid ball surface carrier
         1         4         2         2         0         0                   0
                   0                   0                   0                   0                   0
         0         0                 0.1      0.833333333333         0         0
/PART/2
Rigid solid sphere represented by surface and exact inertia
         2         2         0
/SHELL/2
      2305      3144      3145      3128      3127
      2306      3145      3146      3129      3128
      2307      3146      3147      3130      3129
      2308      3147      3148      3131      3130
      2309      3148      3149      3132      3131
      2310      3149      3150      3133      3132
      2311      3150      3151      3134      3133
      2312      3151      3152      3135      3134
      2313      3152      3153      3136      3135
      2314      3153      3154      3137      3136
      2315      3154      3155      3138      3137
      2316      3155      3156      3139      3138
      2317      3156      3157      3140      3139
      2318      3157      3158      3141      3140
      2319      3158      3159      3142      3141
      2320      3159      3160      3143      3142
      2321      3161      3162      3145      3144
      2322      3162      3163      3146      3145
      2323      3163      3164      3147      3146
      2324      3164      3165      3148      3147
# ... 1516 like lines cut
/GRNOD/NODE/1
Bonded bottom nodes
         1         2         3         4         5         6         7         8         9        10
        11        12        13        14        15        16        17        18        19        20
        21        22        23        24        25        26        27        28        29        30
        31        32        33        34        35        36        37        38        39        40
        41        42        43        44        45        46        47        48        49        50
        51        52        53        54        55        56        57        58        59        60
        61        62        63        64        65        66        67        68        69        70
        71        72        73        74        75        76        77        78        79        80
        81        82        83        84        85        86        87        88        89        90
        91        92        93        94        95        96        97        98        99       100
       101       102       103       104       105       106       107       108       109       110
       111       112       113       114       115       116       117       118       119       120
       121       122       123       124       125       126       127       128       129       130
       131       132       133       134       135       136       137       138       139       140
       141       142       143       144       145       146       147       148       149       150
       151       152       153       154       155       156       157       158       159       160
       161       162       163       164       165       166       167       168       169       170
       171       172       173       174       175       176       177       178       179       180
       181       182       183       184       185       186       187       188       189       190
       191       192       193       194       195       196       197       198       199       200
# ... 43 like lines cut
/GRNOD/NODE/2
Gel top contact nodes
      2501      2502      2503      2504      2505      2506      2507      2508      2509      2510
      2511      2512      2513      2514      2515      2516      2517      2518      2519      2520
      2521      2522      2523      2524      2525      2526      2527      2528      2529      2530
      2531      2532      2533      2534      2535      2536      2537      2538      2539      2540
      2541      2542      2543      2544      2545      2546      2547      2548      2549      2550
      2551      2552      2553      2554      2555      2556      2557      2558      2559      2560
      2561      2562      2563      2564      2565      2566      2567      2568      2569      2570
      2571      2572      2573      2574      2575      2576      2577      2578      2579      2580
      2581      2582      2583      2584      2585      2586      2587      2588      2589      2590
      2591      2592      2593      2594      2595      2596      2597      2598      2599      2600
      2601      2602      2603      2604      2605      2606      2607      2608      2609      2610
      2611      2612      2613      2614      2615      2616      2617      2618      2619      2620
      2621      2622      2623      2624      2625      2626      2627      2628      2629      2630
      2631      2632      2633      2634      2635      2636      2637      2638      2639      2640
      2641      2642      2643      2644      2645      2646      2647      2648      2649      2650
      2651      2652      2653      2654      2655      2656      2657      2658      2659      2660
      2661      2662      2663      2664      2665      2666      2667      2668      2669      2670
      2671      2672      2673      2674      2675      2676      2677      2678      2679      2680
      2681      2682      2683      2684      2685      2686      2687      2688      2689      2690
      2691      2692      2693      2694      2695      2696      2697      2698      2699      2700
# ... 43 like lines cut
/GRNOD/NODE/3
Rigid ball secondary nodes
      3127      3128      3129      3130      3131      3132      3133      3134      3135      3136
      3137      3138      3139      3140      3141      3142      3143      3144      3145      3146
      3147      3148      3149      3150      3151      3152      3153      3154      3155      3156
      3157      3158      3159      3160      3161      3162      3163      3164      3165      3166
      3167      3168      3169      3170      3171      3172      3173      3174      3175      3176
      3177      3178      3179      3180      3181      3182      3183      3184      3185      3186
      3187      3188      3189      3190      3191      3192      3193      3194      3195      3196
      3197      3198      3199      3200      3201      3202      3203      3204      3205      3206
      3207      3208      3209      3210      3211      3212      3213      3214      3215      3216
      3217      3218      3219      3220      3221      3222      3223      3224      3225      3226
      3227      3228      3229      3230      3231      3232      3233      3234      3235      3236
      3237      3238      3239      3240      3241      3242      3243      3244      3245      3246
      3247      3248      3249      3250      3251      3252      3253      3254      3255      3256
      3257      3258      3259      3260      3261      3262      3263      3264      3265      3266
      3267      3268      3269      3270      3271      3272      3273      3274      3275      3276
      3277      3278      3279      3280      3281      3282      3283      3284      3285      3286
      3287      3288      3289      3290      3291      3292      3293      3294      3295      3296
      3297      3298      3299      3300      3301      3302      3303      3304      3305      3306
      3307      3308      3309      3310      3311      3312      3313      3314      3315      3316
      3317      3318      3319      3320      3321      3322      3323      3324      3325      3326
# ... 134 like lines cut
/GRNOD/NODE/4
Initial velocity all ball nodes including center
      3126      3127      3128      3129      3130      3131      3132      3133      3134      3135
      3136      3137      3138      3139      3140      3141      3142      3143      3144      3145
      3146      3147      3148      3149      3150      3151      3152      3153      3154      3155
      3156      3157      3158      3159      3160      3161      3162      3163      3164      3165
      3166      3167      3168      3169      3170      3171      3172      3173      3174      3175
      3176      3177      3178      3179      3180      3181      3182      3183      3184      3185
      3186      3187      3188      3189      3190      3191      3192      3193      3194      3195
      3196      3197      3198      3199      3200      3201      3202      3203      3204      3205
      3206      3207      3208      3209      3210      3211      3212      3213      3214      3215
      3216      3217      3218      3219      3220      3221      3222      3223      3224      3225
      3226      3227      3228      3229      3230      3231      3232      3233      3234      3235
      3236      3237      3238      3239      3240      3241      3242      3243      3244      3245
      3246      3247      3248      3249      3250      3251      3252      3253      3254      3255
      3256      3257      3258      3259      3260      3261      3262      3263      3264      3265
      3266      3267      3268      3269      3270      3271      3272      3273      3274      3275
      3276      3277      3278      3279      3280      3281      3282      3283      3284      3285
      3286      3287      3288      3289      3290      3291      3292      3293      3294      3295
      3296      3297      3298      3299      3300      3301      3302      3303      3304      3305
      3306      3307      3308      3309      3310      3311      3312      3313      3314      3315
      3316      3317      3318      3319      3320      3321      3322      3323      3324      3325
# ... 134 like lines cut
/BCS/1
Perfect bond bottom translations only
   111 000         0         1
/RBODY/1
20g ball exact mass and solid sphere inertia
      3126         0         0         1               2e-05         3         0         4         0
       0.00057426605       0.00057426605       0.00057426605
                   0                   0                   0
         0         0         0
/INIVEL/TRA/1
Ball initial downward velocity
                   0                   0            -1980.57         4         0
/SURF/PART/1
Rigid ball main contact surface
         2
/INTER/TYPE7/1
Frictionless ball main gel secondary
         2         1         4         0      1000         0         2      1000         0         0
                   1                   0                   0         0         0         0
                   0               1e+30                 0.4                   0         1         3
                   1                   0               0.025                   0               1e+30
         0         0         0      1000                0.05                   1                 0.2
         0         0                   0         2         0         0                   1         0
/TH/INTER/1
Ball gel contact forces
       FNX       FNY       FNZ
         1
/TH/NODE/2
Ball center and gel center thickness
        DX        DY        DZ        VX        VY        VZ        AZ
      3126         0ball_center
      2813         0gel_top_center
       313         0gel_bottom_center
/TH/PART/3
Gel energy diagnostic
       DEF
         1
/END
